LAMMPS (17 Feb 2022)
# Created by charmm2lammps v1.9.2 on Текущая дата: 21.02.2022
# Command: charmm2lammps.pl -l=20 wat solvate

units           real
boundary		p p p
neigh_modify    delay 1 every 1 check yes

atom_style      full
bond_style      harmonic
angle_style     charmm
dihedral_style	charmm
improper_style	harmonic
special_bonds   charmm
pair_style      lj/charmm/coul/long 10 12
pair_modify     mix arithmetic
kspace_style    pppm 0.0001

variable 		name index efield
read_data       solvate.data
Reading data file ...
  orthogonal box = (-10.011 -10.0065 -9.92) to (9.989 9.9935 10.08)
  reading atoms ...
  699 atoms
  scanning bonds ...
  scanning angles ...
  reading bonds ...
  466 bonds
  reading angles ...
  233 angles
Finding 1-2 1-3 1-4 neighbors ...
     2 = max # of 1-2 neighbors
     1 = max # of 1-3 neighbors
     1 = max # of 1-4 neighbors
     2 = max # of special neighbors

shell			mkdir efield.out
shell			cd efield.out

#thermo          10
#thermo_style    multi

thermo_style	custom step temp press lx ke pe etotal density
thermo          100

minimize 		0.0 0.0 1000 10000
PPPM initialization ...
  G vector (1/distance) = 0.22290628
  grid = 9 9 9
  stencil order = 5
  estimated absolute RMS force accuracy = 0.021767541
  estimated relative force accuracy = 6.5552303e-05
  3d grid and FFT values/proc = 2744 729
  generated 1 of 1 mixed pair_coeff terms from arithmetic mixing rule
  update every 1 steps, delay 0 steps, check yes
Step Temp Press Lx KinEng PotEng TotEng Density
0            0      6646990           20            0    192002.37    192002.37   0.87128232
Loop time of 10.0506 on 1 procs for 609 steps with 699 atoms

Minimization stats:
  Stopping criterion = linesearch alpha is zero
  Energy initial, next-to-last, final =
  Force two-norm initial, final = 3433745.7 5.0242395
  Force max component initial, final = 2548441.3 0.71777335
  Final line search alpha, max atom move = 3.7724992e-10 2.7077994e-10
  Iterations, force evaluations = 609 1235

velocity        all create 300.0 1234567 mom yes rot yes dist gaussian

fix				1 all nvt temp 300.0 300.0 100
timestep        1.0
run				2000
PPPM initialization ...
  G vector (1/distance) = 0.22290628
  grid = 9 9 9
  stencil order = 5
  estimated absolute RMS force accuracy = 0.021767541
  estimated relative force accuracy = 6.5552303e-05
  3d grid and FFT values/proc = 2744 729
  generated 1 of 1 mixed pair_coeff terms from arithmetic mixing rule
Step Temp Press Lx KinEng PotEng TotEng Density
609          300   -537.80117           20    624.18162   -2935.4414   -2311.2598   0.87128232
Averages over the last 11 of 22 rows, steps 1700 to 2609:
Temp Press Lx KinEng PotEng TotEng Density
296.83 -3166.07 20 617.586 -2177.35 -1559.76 0.871282
Loop time of 11.4774 on 1 procs for 2000 steps with 699 atoms

unfix			1

fix             1 all npt temp 300.0 300.0 100 iso 1.0 1.0 1000
run				4000
PPPM initialization ...
  G vector (1/distance) = 0.22290628
  grid = 9 9 9
  stencil order = 5
  estimated absolute RMS force accuracy = 0.021767541
  estimated relative force accuracy = 6.5552303e-05
  3d grid and FFT values/proc = 2744 729
  generated 1 of 1 mixed pair_coeff terms from arithmetic mixing rule
Step Temp Press Lx KinEng PotEng TotEng Density
2609    299.26058   -3891.7236           20    622.64317   -2180.5368   -1557.8937   0.87128232
Averages over the last 21 of 42 rows, steps 4700 to 6609:
Temp Press Lx KinEng PotEng TotEng Density
298.544 -352.091 18.8586 621.152 -2277.83 -1656.68 1.03931
Loop time of 29.9224 on 1 procs for 4000 steps with 699 atoms

reset_timestep  0

group			oxygens type 2
233 atoms in group oxygens

compute			1 all rdf 100 2 2 1 2
compute			2 oxygens msd com yes

fix				2 all ave/time 100 40 5000 c_1[*] ave running file RDF.txt mode vector
fix 			3 all print 100 "$(step) $(temp) $(press) $(lx:%.3f) $(1000*density:%.5g)" file thermo.txt title "Step T p L rho(kg/m3)" screen no
#fix				3 all print 100 "$(step) $(temp) $(density)" file T_and_rho.txt screen no
fix				4 all print 100 "$(step) $(c_2[4])" file MSD.txt

dump			1 all custom 1 dump.unwrapped.*.txt mol type xu yu zu
dump_modify		1 sort id
dump			2 all dcd 100 frames.dcd
dump_modify		2 unwrap yes

run             5000
PPPM initialization ...
  G vector (1/distance) = 0.22679214
  grid = 9 9 9
  stencil order = 5
  estimated absolute RMS force accuracy = 0.018403994
  estimated relative force accuracy = 5.5423081e-05
  3d grid and FFT values/proc = 2744 729
  generated 1 of 1 mixed pair_coeff terms from arithmetic mixing rule
  update every 1 steps, delay 1 steps, check yes
0 5.3303773990773433007e-31
Step Temp Press Lx KinEng PotEng TotEng Density
0    310.30756    844.12713    18.913017     645.6276   -2279.0407   -1633.4131    1.0303065
100 0.2268473002183496734
200 0.55053280605580212637
300 0.89123904351976646065
400 1.1982164649938715772
500 1.5135176687497065018
600 1.6992263294345597568
700 1.858257929434945277
800 2.0675390545847083246
900 2.3071799420149101678
1000 2.5552703028462366852
1100 2.6762050350721433567
1200 2.8832214239693785274
1300 3.2360047642437779203
1400 3.5587749599462421557
1500 3.788288427883432341
1600 4.0188519750161972865
1700 4.2931528318587535153
1800 4.4835722437267158114
1900 4.6646519607247904915
2000 4.7990801790495503099
2100 5.1188017186753036469
2200 5.4806958645457699575
2300 5.6090627237635617419
2400 5.8474777495955541085
2500 6.1028680445194813942
2600 6.3340492440860671763
2700 6.4416149420955628457
2800 6.5320883561758495972
2900 6.5969305821976913506
3000 6.8446263590285445488
3100 7.0972514936618367187
3200 7.2656874478279105389
3300 7.5308261454175404737
3400 7.8929518987836573274
3500 8.2337467003466819904
3600 8.7005239354677836872
3700 9.1010388501152359453
3800 9.3355879703732060904
3900 9.5185573285478177752
4000 9.7801382232605256206
4100 9.9084054412564395165
4200 10.196237552498104151
4300 10.364251757620657202
4400 10.396724650407788815
4500 10.436487983979672478
4600 10.610920264163446802
4700 10.803528265247674511
4800 11.291207423709973767
4900 11.735841411259311684
5000 12.065277367972914391
Loop time of 48.1418 on 1 procs for 5000 steps with 699 atoms
